/batch
/config,noeldb,1     ! force off writing results to database
*get,_wallstrt,active,,time,wall
! ANSYS input file written by Workbench version 2026 R1
! File used for geometry attach: C:\Users\widad elyamani\Downloads\intial design simulation_files\dp0\SYS\DM\SYS.agdb
/title,intial design simulation--Static Structural (A5)
! ****** Begin Custom Load Command Snippet ******
/COM, ACT Extensions:
/COM,     LSDYNA, 2026.1
/COM,     5f463412-bd3e-484b-87e7-cbc0a665e474, wbex
/COM,     ANSYSMotion, 2026.1
/COM,     20180725-3f81-49eb-9f31-41364844c769, wbex
! ****** End   Custom Load Command Snippet ******
*DIM,_wb_ProjectScratch_dir,string,248
_wb_ProjectScratch_dir(1) = 'C:\Users\widad elyamani\Downloads\_ProjectScratch\Scr3770\'
*DIM,_wb_SolverFiles_dir,string,248
_wb_SolverFiles_dir(1) = 'C:\Users\widad elyamani\Downloads\intial design simulation_files\dp0\SYS\MECH\'
*DIM,_wb_userfiles_dir,string,248
_wb_userfiles_dir(1) = 'C:\Users\widad elyamani\Downloads\intial design simulation_files\user_files\'
/com,--- Data in consistent MKS units. See Solving Units in the help system for more information.
/units,MKS
/nopr
/wb,file,start              !  signify a WB generated input file
/prep7
! Turn off shape checking because checks already performed inside WB mesher.
! See help system for more information.
SHPP,OFF,,NOWARN
/nolist
etcon,set             ! allow ANSYS to choose best KEYOP's for 180x elements, resets any applicable keyopt to MAPDL defaults
/com,*********** Send User Defined Coordinate System(s) ***********
csys,0
/com,*********** Nodes for the whole assembly ***********
nblock,3,,27824
(1i9,3e20.9e3)
        1     0.000000000E+00    -1.415287291E-02     0.000000000E+00
        2     0.000000000E+00     1.415287291E-02     0.000000000E+00
        3     0.000000000E+00    -1.410188702E-02    -1.200247471E-03
        4     0.000000000E+00    -1.394929672E-02    -2.391847132E-03
        5     0.000000000E+00    -1.369620141E-02    -3.566213479E-03
        6     0.000000000E+00    -1.334442466E-02    -4.714885177E-03
        7     0.000000000E+00    -1.289650102E-02    -5.829586019E-03
        8     0.000000000E+00    -1.235565779E-02    -6.902284559E-03
        9     0.000000000E+00    -1.172579177E-02    -7.925251982E-03
       10     0.000000000E+00    -1.101144115E-02    -8.891117782E-03
       11     0.000000000E+00    -1.021775285E-02    -9.792922875E-03
       12     0.000000000E+00    -9.350445396E-03    -1.062416973E-02
       13     0.000000000E+00    -8.415767773E-03    -1.137886921E-02
       14     0.000000000E+00    -7.420454351E-03    -1.205158367E-02
       15     0.000000000E+00    -6.371676385E-03    -1.263746619E-02
       16     0.000000000E+00    -5.276990344E-03    -1.313229548E-02
       17     0.000000000E+00    -4.144283468E-03    -1.353250628E-02
       18     0.000000000E+00    -2.981716933E-03    -1.383521506E-02
       19     0.000000000E+00    -1.797667060E-03    -1.403824080E-02
       20     0.000000000E+00    -6.006649551E-04    -1.414012069E-02
! ... 25276 like lines cut
/wb,elem,start            !  set before creation of elements
/com,*********** Elements for Body 1 'PRT0001' ***********
et,1,187
MAT,1 $ TYPE,1 $ REAL,1 $ SECNUM,1 $ ESYS,0    ! ELEMNODES = 10
eblock,21,COMPACT,,15598
(21i9)
        1     1993     3768     2193     2746    16503    17719    16499    16502    21387    17717
        2     1993     2193     3768     2690    16499    17719    16503    16501    17715    21053
        3     2897     3768     3014     3341    22166    22722    22162    22165    24320    22720
        4     2897     3014     3768     3312    22162    22722    22166    22164    22719    24186
        5     2897     3276     3768     3341    22163    24015    22166    22165    24012    24320
        6     2897     3768     3276     3312    22166    24015    22163    22164    24186    24011
        7     1979     2690     3768     2960    16390    21053    16393    16392    21050    22494
        8     1979     3768     2868     2960    16393    22015    16391    16392    22494    22011
        9     1976     1979     3768     2868    16354    16393    16362    16361    16391    22015
       10     1976     3768     1993     2746    16362    16503    16356    16360    21387    16502
       11     2193     3768     2690     3341    17719    21053    17715    17718    24320    21052
       12     2193     2746     3768     3341    17717    21387    17719    17718    21385    24320
       13     3014     3768     3312     3761    22722    24186    22719    22721    25295    24185
       14     3014     3341     3768     3761    22720    24320    22722    22721    24319    25295
       15     2690     3768     3276     3341    21053    24015    21051    21052    24320    24012
       16     2868     2960     3768     3312    22011    22494    22015    22013    22492    24186
       17     1976     3768     2746     2868    16362    21387    16360    16361    22015    21382
       18     2746     3768     3341     3761    21387    24320    21385    21386    25295    24319
       19     2868     3312     3768     3761    22013    24186    22015    22014    24185    25295
       20     2746     2868     3768     3761    21382    22015    21387    21386    22014    25295
! ... 15579 like lines cut
secnum,1    ! reset the section ID to default
! Material Id = {0D5F0CDE-B82A-418A-9D72-01E73D451CA1}
/wb,elem,end               !  done creating elements
toffst,273.15,      ! Temperature offset from absolute zero
/com,*********** Set Reference Temperature ***********
tref,22.
/wb,mat,start              !  starting to send materials
/com,*********** Send Materials ***********
MP,DENS,1,2800,	! kg m^-3
MP,EX,1,73050000000,	! Pa
MP,NUXY,1,0.33,
MP,UVID,1,2035906f-5e96-4bae-9868-51da2798a036

/wb,mat,end                !  done sending materials
!************************* Model Summary ********************
! PRT0001,	Al 7075,	matid,	1
!************************* End Model Summary ********************
! get the diagonal of the bounding box. Needed later for other things
*get,_xmin,node,,mnloc,x
*get,_ymin,node,,mnloc,y
*get,_zmin,node,,mnloc,z
*get,_xmax,node,,mxloc,x
*get,_ymax,node,,mxloc,y
*get,_zmax,node,,mxloc,z
_ASMDIAG=(_xmax-_xmin)*(_xmax-_xmin)+(_ymax-_ymin)*(_ymax-_ymin)+(_zmax-_zmin)*(_zmax-_zmin)
_ASMDIAG=SQRT(_ASMDIAG)
/wb,contact,start          !  starting to send contact
/wb,contact,end            !  done creating contacts
/golist
/wb,load,start             !  starting to send loads
/com,*********** Fixed Supports ***********
CMBLOCK,_FIXEDSU,NODE,     2351
(8i10)
        75      -146       384     -1547      1640     -1661      1960     -1974
      3769      3770      4331     -4334      4338      4342      4343      4347
     -4349      4351     -4353      4357     -4360      4364      4365      4368
     -4370      4375     -4377      4383     -4386      4393      4394      4396
      4399     -4401      4406      4407      4410     -4412      4416     -4419
      4423     -4425      4428      4429      4433     -4435      4438      4441
     -4443      4449      4452      4455     -4458      4463      4464      4467
     -4470      4473     -4475      4480     -4482      4485      4486      4489
     -4491      4494      4496     -4499      4503      4507     -4509      4515
     -4518      4521      4522      4524     -4526      4529     -4532      4536
      4537      4542     -4544      4547      4550     -4553      4557      4562
      4564      4565      4570     -4572      4575     -4577      4582     -4585
      4588      4589      4593     -4596      4601      4602      4607     -4610
      4613      4614      4618      4619      4622     -4624      4627     -4630
      4634     -4636      4638     -4640      4642      4643      4646     -4648
      4653     -4656      4662      4663      4666      4669     -4671      4676
      4677      4680     -4683      4686     -4688      4693     -4695      4698
      4699      4703     -4705      4709      4712     -4715      4718      4722
      4724      4725      4728     -4731      4734     -4736      4739      4740
      4744     -4747      4750      4751      4755     -4757      4760      4765
! ... 274 like lines cut
cmsel,s,_FIXEDSU
d,all,all
nsel,all
/com,*********** Define Force Without Surface Effect Elements "Force" ***********
local,12,0,0.,0.,0.,0.,0.,0.
csys,0
CMBLOCK,_CM28_1 ,ELEM,        4
(8i10)
       781      2467      3404     13400
CMBLOCK,_CM28_2 ,ELEM,       11
(8i10)
       783      2009      2217      2218      2272      7737      7751     13422
     15170     15229     15428
CMBLOCK,_CM28_3 ,ELEM,        6
(8i10)
      1852      1858      1860      1862      1873      1887
CMBLOCK,_CM28_4 ,ELEM,        7
(8i10)
      1851      2213      2251      2260      3649      7736      7750
/gst,on,on
fini
*get,_numnode,node,0,count
*get,_numelem,elem,0,count
*get, _MAXELEMNUM, elem, 0, NUM, MAX
*get, _MAXNODENUM, node, 0, NUM, MAX
*get, _MAXELEMTYPE, etyp, 0, NUM, MAX
*get, _MAXREALCONST, rcon, 0, NUM, MAX
/go
/wb,load,end               !  done creating loads
/com,--- Number of total nodes = %_numnode%
/com,--- Number of contact elements = 0
/com,--- Number of spring elements = 0
/com,--- Number of bearing elements = 0
/com,--- Number of solid elements = 15598
/com,--- Number of condensed parts = 0
/com,--- Number of total elements = %_numelem%
*get,_wallbsol,active,,time,wall
/com,****************************************************************************
/com,*************************    SOLUTION       ********************************
/com,****************************************************************************
/solu
antype,0                   ! static analysis
_thickRatio=  1     ! Ratio of thick parts in the model
eqsl,pcg,1e-8,,,,,,1
cntr,print,1               ! print out contact info and also make no initial contact an error
cncheck,dmp		!	Enable program controlled contact splitting for distributed memory parallel run
dmpoption,emat,no             ! Don't combine emat file for DANSYS
dmpoption,esav,no             ! Don't combine esav file for DANSYS
nldiag,cont,iter           ! print out contact info each equilibrium iteration
rescontrol,,none                 ! Do not keep any restart files
/com,****************************************************
/com,******************* SOLVE FOR LS 1 OF 1 ****************
/com,*********** Set Force Without Surface Effect Elements "Force" ***********
sfco,1,0,12,,,,,1   ! set and send X component values
sfe,_CM28_1,1,pres,1,0.
sfe,_CM28_2,2,pres,1,0.
sfe,_CM28_3,3,pres,1,0.
sfe,_CM28_4,4,pres,1,0.
sfco,1,1,12,,,,,1   ! set and send Y component values
sfe,_CM28_1,1,pres,1,0.
sfe,_CM28_2,2,pres,1,0.
sfe,_CM28_3,3,pres,1,0.
sfe,_CM28_4,4,pres,1,0.
sfco,1,2,12,,,,,1   ! set and send Z component values
sfe,_CM28_1,1,pres,1,-1183181.06719894
sfe,_CM28_2,2,pres,1,-1183181.06719894
sfe,_CM28_3,3,pres,1,-1183181.06719894
sfe,_CM28_4,4,pres,1,-1183181.06719894
nsel,all
esel,all
sfco,none		! resets the sfcontrol
/nopr
/gopr
nsub,1,1,1
time,1.
outres,erase
outres,all,none
outres,nsol,all,
outres,rsol,all
outres,eangl,all
outres,etmp,all
outres,veng,all
outres,strs,all,
outres,epel,all,
outres,eppl,all,
outres,cont,all,
! *********** WB SOLVE COMMAND ***********
! check interactive state
*get,ANSINTER_,active,,int
*if,ANSINTER_,ne,0,then
/eof
*endif
solve
/com *************** Write FE CONNECTORS ********* 
CEWRITE,file,ce,,INTE
/com,****************************************************
/com,*************** FINISHED SOLVE FOR LS 1 *************
fini
*get,_wallasol,active,,time,wall
/nopr
*get,_numnode,node,0,count
*get,_numelem,elem,0,count
*get, _MAXELEMNUM, elem, 0, NUM, MAX
*get, _MAXNODENUM, node, 0, NUM, MAX,,,INTERNAL
*get, _MAXELEMTYPE, etyp, 0, NUM, MAX
*get, _MAXREALCONST, rcon, 0, NUM, MAX
*get,_NSOLTHREADS,active,0,ntfs
*get,_NSOLPROCESSES,active,0,npfs
/gopr
*get,_PCGITER,active,,solu,cgiter
/post1
xmlo,ENCODING,ISO-8859-1
xmlo,parm
/xml,parm,xml
fini
/gopr
*get,_walldone,active,,time,wall
_preptime=(_wallbsol-_wallstrt)*3600
_solvtime=(_wallasol-_wallbsol)*3600
_posttime=(_walldone-_wallasol)*3600
_totaltim=(_walldone-_wallstrt)*3600
*get,_dlbratio,active,0,solu,dlbr
*get,_combtime,active,0,solu,comb
*get,_ssmode,active,0,solu,ssmm
*get,_ndofs,active,0,solu,ndof
*get,_sol_end_time,active,0,set,time
*if,_sol_end_time,eq,1.000000,then
/fclean				!clean distributed files
*endif
/com,--- Total number of nodes = %_numnode%
/com,--- Total number of elements = %_numelem%
/com,--- Element load balance ratio = %_dlbratio%
/com,--- Time to combine distributed files = %_combtime%
/com,--- Sparse memory mode = %_ssmode%
/com,--- Number of DOF = %_ndofs%
/wb,file,end               ! done with WB generated input
